feeders/ACEC Laid Out/main.glm
clock {
timezone PST+8PDT;
stoptime '2000-01-02 00:00:00';
starttime '2000-01-01 00:00:00';
};

#set minimum_timestep=60;
#set profiler=1;
#set relax_naming_rules=1;
module generators;
module tape;
module climate;
module residential {
implicit_enduses NONE;
};

module powerflow {
solver_method FBS;
NR_iteration_limit 50;
};

module generators;
object climate {
name Climate;
interpolate QUADRATIC;
tmyfile climate.tmy2;
};

object node {
phases ABCN;
nominal_voltage 7200.0;
name FRIENDSHIP;
bustype SWING;
};

object fuse {
phases ABCN;
from node958178RFRN1-R0001x1;
name RFRN1-R0001x1;
current_limit 9999.0 A;
to nodeRFRN1-R0001x1958175;
};

object fuse {
phases BN;
from node978192F28653x1;
name F28653x1;
current_limit 9999.0 A;
to nodeF28653x1978174;
};

object load {
phases BN;
load_class R;
name S1806-33-073;
parent nodeS1806-33-073T14100;
constant_power_C 0;
constant_power_B 1.60259;
constant_power_A 0;
nominal_voltage 120;
};

object load {
phases BN;
load_class R;
name S1806-32-065;
parent nodeS1806-32-065T14102;
constant_power_C 0;
constant_power_B 1.06969;
constant_power_A 0;
nominal_voltage 120;
};

object load {
phases BN;
load_class R;
name S1806-33-042;
parent nodeS1806-32-065T14102;
constant_power_C 0;
constant_power_B 0.776014;
constant_power_A 0;
nominal_voltage 120;
};

object fuse {
phases CN;
from node839461R2911x1;
name R2911x1;
current_limit 9999.0 A;
to nodeR2911x1978200;
};

object fuse {
phases CN;
from node839506FFRN1-F008x1;
name FFRN1-F008x1;
current_limit 9999.0 A;
to nodeFFRN1-F008x1839505;
};

object load {
phases CN;
load_class R;
name S1806-33-047;
parent nodeS1806-33-0471806-0087;
constant_power_C 4.65414;
constant_power_B 0;
constant_power_A 0;
nominal_voltage 120;
};

object load {
phases CN;
load_class R;
name S1806-33-059;
parent nodeS1806-33-0471806-0087;
constant_power_C 3.44247;
constant_power_B 0;
constant_power_A 0;
nominal_voltage 120;
};

object load {
phases CN;
load_class R;
name S1806-33-050;
parent nodeS1806-33-0501806-0085;
constant_power_C 2.82205;
constant_power_B 0;
constant_power_A 0;
nominal_voltage 120;
};

object load {
phases CN;
load_class R;
name S1806-33-032;
parent nodeS1806-33-0321806-33-031;
constant_power_C 2.90762;
constant_power_B 0;
constant_power_A 0;
nominal_voltage 120;
};

object load {
phases CN;
load_class R;
name S1806-33-044;
parent nodeS1806-33-0441806-33-030;
constant_power_C 0.702108;
constant_power_B 0;
constant_power_A 0;
nominal_voltage 120;
};

object load {
phases CN;
load_class R;
name S1806-33-069;
parent nodeS1806-33-069T4303;
constant_power_C 5.19287;
constant_power_B 0;
constant_power_A 0;
nominal_voltage 120;
};

object load {
phases CN;
load_class R;
name S1806-33-068;
parent nodeS1806-33-068T4006;
constant_power_C 0.705998;
constant_power_B 0;
constant_power_A 0;
nominal_voltage 120;
};

object load {
phases CN;
load_class R;
name S1806-33-077;
parent nodeS1806-33-077T28678;
constant_power_C 2.0402;
constant_power_B 0;
constant_power_A 0;
nominal_voltage 120;
};

object load {
phases CN;
load_class R;
name S1806-33-016;
parent nodeS1806-33-0161806-33-025;
constant_power_C 0.525122;
constant_power_B 0;
constant_power_A 0;
nominal_voltage 120;
};

object load {
phases CN;
load_class R;
name S1806-33-023;
parent nodeS1806-33-0161806-33-025;
constant_power_C 1.01913;
constant_power_B 0;
constant_power_A 0;
nominal_voltage 120;
};

object load {
phases CN;
load_class R;
name S1806-33-026;
parent nodeS1806-33-0161806-33-025;
constant_power_C 0.0544571;
constant_power_B 0;
constant_power_A 0;
nominal_voltage 120;
};

object load {
phases CN;
load_class R;
name S1806-33-013;
parent nodeS1806-33-0131806-33-024;
constant_power_C 0.108914;
constant_power_B 0;
constant_power_A 0;
nominal_voltage 120;
};

object load {
phases CN;
load_class R;
name S1806-33-031;
parent nodeS1806-33-0131806-33-024;
constant_power_C 0.529012;
constant_power_B 0;
constant_power_A 0;
nominal_voltage 120;
};

object load {
phases CN;
load_class R;
name S1806-33-037;
parent nodeS1806-33-0131806-33-024;
constant_power_C 0.490114;
constant_power_B 0;
constant_power_A 0;
nominal_voltage 120;
};

object load {
phases CN;
load_class R;
name S1806-33-038;
parent nodeS1806-33-0131806-33-024;
constant_power_C 0;
constant_power_B 0;
constant_power_A 0;
nominal_voltage 120;
};

object load {
phases CN;
load_class R;
name S1806-33-041;
parent nodeS1806-33-0411806-33-022;
constant_power_C 0.532902;
constant_power_B 0;
constant_power_A 0;
nominal_voltage 120;
};

object load {
phases CN;
load_class R;
name S1806-33-029;
parent nodeS1806-33-0291806-33-021;
constant_power_C 3.01653;
constant_power_B 0;
constant_power_A 0;
nominal_voltage 120;
};

object load {
phases CN;
load_class R;
name S1806-33-046;
parent nodeS1806-33-0291806-33-021;
constant_power_C 0;
constant_power_B 0;
constant_power_A 0;
nominal_voltage 120;
};

object load {
phases CN;
load_class R;
name S1806-33-056;
parent nodeS1806-33-0561806-33-089;
constant_power_C 1.29141;
constant_power_B 0;
constant_power_A 0;
nominal_voltage 120;
};

object load {
phases CN;
load_class R;
name S1806-33-022;
parent nodeS1806-33-0221806-33-020;
constant_power_C 0.423987;
constant_power_B 0;
constant_power_A 0;
nominal_voltage 120;
};

object load {
phases CN;
load_class R;
name S1806-33-045;
parent nodeS1806-33-0221806-33-020;
constant_power_C 0.2859;
constant_power_B 0;
constant_power_A 0;
nominal_voltage 120;
};

object load {
phases CN;
load_class R;
name S1806-33-067;
parent nodeS1806-33-0221806-33-020;
constant_power_C 0.291734;
constant_power_B 0;
constant_power_A 0;
nominal_voltage 120;
};

object load {
phases CN;
load_class R;
name S1806-33-015;
parent nodeS1806-33-0151806-33-017;
constant_power_C 0.213939;
constant_power_B 0;
constant_power_A 0;
nominal_voltage 120;
};

object load {
phases CN;
load_class R;
name S1806-33-033;
parent nodeS1806-33-0331806-33-015;
constant_power_C 1.05219;
constant_power_B 0;
constant_power_A 0;
nominal_voltage 120;
};

object load {
phases CN;
load_class R;
name S1806-33-043;
parent nodeS1806-33-0431806-33-014;
constant_power_C 2.96402;
constant_power_B 0;
constant_power_A 0;
nominal_voltage 120;
};

object load {
phases CN;
load_class R;
name S1806-33-055;
parent nodeS1806-33-0551806-33-013;
constant_power_C 1.21751;
constant_power_B 0;
constant_power_A 0;
nominal_voltage 120;
};

object load {
phases CN;
load_class R;
name S1806-33-020;
parent nodeS1806-33-0201806-33-012;
constant_power_C 1.32058;
constant_power_B 0;
constant_power_A 0;
nominal_voltage 120;
};

object load {
phases CN;
load_class R;
name S1806-33-064;
parent nodeS1806-33-0201806-33-012;
constant_power_C 1.59676;
constant_power_B 0;
constant_power_A 0;
nominal_voltage 120;
};

object load {
phases CN;
load_class R;
name S1806-33-054;
parent nodeS1806-33-0541806-33-010;
constant_power_C 1.98379;
constant_power_B 0;
constant_power_A 0;
nominal_voltage 120;
};

object load {
phases CN;
load_class R;
name S1806-33-058;
parent nodeS1806-33-0581806-33-009;
constant_power_C 1.51896;
constant_power_B 0;
constant_power_A 0;
nominal_voltage 120;
};

object load {
phases CN;
load_class R;
name S1806-33-076;
parent nodeS1806-33-0761806-33-081;
constant_power_C 0.943275;
constant_power_B 0;
constant_power_A 0;
nominal_voltage 120;
};

object load {
phases CN;
load_class R;
name S1806-33-065;
parent nodeS1806-33-0651806-33-008;
constant_power_C 1.83404;
constant_power_B 0;
constant_power_A 0;
nominal_voltage 120;
};

object load {
phases CN;
load_class R;
name S1806-33-007;
parent nodeS1806-33-0071806-33-007;
constant_power_C 2.76175;
constant_power_B 0;
constant_power_A 0;
nominal_voltage 120;
};

object load {
phases CN;
load_class R;
name S1806-33-009;
parent nodeS1806-33-0071806-33-007;
constant_power_C 0.466775;
constant_power_B 0;
constant_power_A 0;
nominal_voltage 120;
};

object load {
phases CN;
load_class R;
name S1806-33-010;
parent nodeS1806-33-0101806-33-006;
constant_power_C 4.9342;
constant_power_B 0;
constant_power_A 0;
nominal_voltage 120;
};

object load {
phases CN;
load_class R;
name S1806-33-006;
parent nodeS1806-33-0061806-33-005;
constant_power_C 2.77148;
constant_power_B 0;
constant_power_A 0;
nominal_voltage 120;
};

object fuse {
phases BN;
from node841714R2909x1;
name R2909x1;
current_limit 9999.0 A;
to nodeR2909x1841713;
};

object fuse {
phases BN;
from node841724FFRN1-F011x1;
name FFRN1-F011x1;
current_limit 9999.0 A;
to nodeFFRN1-F011x1841723;
};

object load {
phases BN;
load_class R;
name S1806-33-021;
parent nodeS1806-33-0211806-0099;
constant_power_C 0;
constant_power_B 2.61783;
constant_power_A 0;
nominal_voltage 120;
};

object load {
phases BN;
load_class R;
name S1806-28-001;
parent nodeS1806-28-0011806-28-011;
constant_power_C 0;
constant_power_B 1.71151;
constant_power_A 0;
nominal_voltage 120;
};

object load {
phases BN;
load_class R;
name S1806-28-010;
parent nodeS1806-28-0011806-28-011;
constant_power_C 0;
constant_power_B 1.53063;
constant_power_A 0;
nominal_voltage 120;
};

object fuse {
phases BN;
from node939255F18526x1;
name F18526x1;
current_limit 9999.0 A;
to nodeF18526x1841727;
};

object load {
phases BN;
load_class R;
name S1806-33-034;
parent nodeS1806-33-0341806-0098;
constant_power_C 0;
constant_power_B 0.0136143;
constant_power_A 0;
nominal_voltage 120;
};

object load {
phases BN;
load_class R;
name S1806-33-036;
parent nodeS1806-33-0341806-0098;
constant_power_C 0;
constant_power_B 0.859644;
constant_power_A 0;
nominal_voltage 120;
};

object load {
phases BN;
load_class R;
name S1806-33-048;
parent nodeS1806-33-0341806-0098;
constant_power_C 0;
constant_power_B 0.834361;
constant_power_A 0;
nominal_voltage 120;
};

object fuse {
phases BN;
from node939275F18527x1;
name F18527x1;
current_limit 9999.0 A;
to nodeF18527x1841734;
};

object load {
phases BN;
load_class R;
name S1806-33-024;
parent nodeS1806-33-024T18549;
constant_power_C 0;
constant_power_B 2.00713;
constant_power_A 0;
nominal_voltage 120;
};

object load {
phases BN;
load_class R;
name S1806-33-053;
parent nodeS1806-33-024T18549;
constant_power_C 0;
constant_power_B 6.22367;
constant_power_A 0;
nominal_voltage 120;
};

object load {
phases BN;
load_class R;
name S1806-33-027;
parent nodeS1806-33-0271806-0097;
constant_power_C 0;
constant_power_B 5.19676;
constant_power_A 0;
nominal_voltage 120;
};

object load {
phases BN;
load_class R;
name S1806-27-011;
parent nodeS1806-27-011T10512;
constant_power_C 0;
constant_power_B 3.58055;
constant_power_A 0;
nominal_voltage 120;
};

object load {
phases BN;
load_class R;
name S1806-27-008;
parent nodeS1806-27-008T10513;
constant_power_C 0;
constant_power_B 2.13161;
constant_power_A 0;
nominal_voltage 120;
};

object load {
phases BN;
load_class R;
name S1806-28-013;
parent nodeS1806-28-013T10515;
constant_power_C 0;
constant_power_B 78.0712;
constant_power_A 0;
nominal_voltage 120;
};

object fuse {
phases BN;
from node841752FFRN1-F081x1;
name FFRN1-F081x1;
current_limit 9999.0 A;
to nodeFFRN1-F081x1841751;
};

object load {
phases BN;
load_class R;
name S1806-33-061;
parent nodeS1806-33-0611806-0198;
constant_power_C 0;
constant_power_B 5.78218;
constant_power_A 0;
nominal_voltage 120;
};

object fuse {
phases BN;
from node841764FFRN1-F140x1;
name FFRN1-F140x1;
current_limit 9999.0 A;
to nodeFFRN1-F140x1841763;
};

object load {
phases BN;
load_class R;
name S1806-34-005;
parent nodeS1806-34-0051806-0062;
constant_power_C 0;
constant_power_B 2.28525;
constant_power_A 0;
nominal_voltage 120;
};

object fuse {
phases BN;
from node841768FFRN1-F176x1;
name FFRN1-F176x1;
current_limit 9999.0 A;
to nodeFFRN1-F176x1841767;
};

object load {
phases BN;
load_class R;
name S1806-33-049;
parent nodeS1806-33-0491806-0088;
constant_power_C 0;
constant_power_B 2.32415;
constant_power_A 0;
nominal_voltage 120;
};

object fuse {
phases BN;
from node841772FFRN1-F196x1;
name FFRN1-F196x1;
current_limit 9999.0 A;
to nodeFFRN1-F196x1841771;
};

object load {
phases BN;
load_class R;
name S1806-33-060;
parent nodeS1806-33-0601806-0190;
constant_power_C 0;
constant_power_B 3.08266;
constant_power_A 0;
nominal_voltage 120;
};

object load {
phases BN;
load_class R;
name S1806-33-062;
parent nodeS1806-33-0601806-0190;
constant_power_C 0;
constant_power_B 1.64733;
constant_power_A 0;
nominal_voltage 120;
};

object load {
phases BN;
load_class R;
name S1806-33-004;
parent nodeS1806-33-0041806-33-057;
constant_power_C 0;
constant_power_B 0.394814;
constant_power_A 0;
nominal_voltage 120;
};

object load {
phases BN;
load_class R;
name S1806-33-072;
parent nodeS1806-33-0721806-33-066;
constant_power_C 0;
constant_power_B 0.145867;
constant_power_A 0;
nominal_voltage 120;
};

object load {
phases BN;
load_class R;
name S1806-33-014;
parent nodeS1806-33-0141806-33-052;
constant_power_C 0;
constant_power_B 1.08914;
constant_power_A 0;
nominal_voltage 120;
};

object load {
phases BN;
load_class R;
name S1806-34-003;
parent nodeS1806-34-0031806-33-051;
constant_power_C 0;
constant_power_B 0.770179;
constant_power_A 0;
nominal_voltage 120;
};

object load {
phases BN;
load_class R;
name S1806-33-018;
parent nodeS1806-33-0181806-33-050;
constant_power_C 0;
constant_power_B 0.287845;
constant_power_A 0;
nominal_voltage 120;
};

object fuse {
phases BN;
from node841778FFRN1-F217x1;
name FFRN1-F217x1;
current_limit 9999.0 A;
to nodeFFRN1-F217x1841777;
};

object load {
phases BN;
load_class R;
name S1806-34-006;
parent nodeS1806-34-0061806-0245;
constant_power_C 0;
constant_power_B 19.5717;
constant_power_A 0;
nominal_voltage 120;
};

object load {
phases BN;
load_class R;
name S1806-27-003;
parent nodeS1806-27-003T10500;
constant_power_C 0;
constant_power_B 2.86094;
constant_power_A 0;
nominal_voltage 120;
};

object load {
phases BN;
load_class R;
name S1806-27-001;
parent nodeS1806-27-001T10502;
constant_power_C 0;
constant_power_B 4.14069;
constant_power_A 0;
nominal_voltage 120;
};

object load {
phases BN;
load_class R;
name S1806-27-005;
parent nodeS1806-27-005T7804;
constant_power_C 0;
constant_power_B 0.0875204;
constant_power_A 0;
nominal_voltage 120;
};

object load {
phases BN;
load_class R;
name S1806-27-012;
parent nodeS1806-27-012T12908;
constant_power_C 0;
constant_power_B 2.21718;
constant_power_A 0;
nominal_voltage 120;
};

object load {
phases BN;
load_class R;
name S1806-34-002;
parent nodeS1806-34-002T4020;
constant_power_C 0;
constant_power_B 3.13712;
constant_power_A 0;
nominal_voltage 120;
};

object load {
phases BN;
load_class R;
name S1806-34-001;
parent nodeS1806-34-001T10505;
constant_power_C 0;
constant_power_B 5.96305;
constant_power_A 0;
nominal_voltage 120;
};

object load {
phases BN;
load_class R;
name S1806-27-010;
parent nodeS1806-27-010T10506;
constant_power_C 0;
constant_power_B 0.466775;
constant_power_A 0;
nominal_voltage 120;
};

object load {
phases BN;
load_class R;
name S1806-27-002;
parent nodeS1806-27-0021806-27-048;
constant_power_C 0;
constant_power_B 1.34392;
constant_power_A 0;
nominal_voltage 120;
};

object load {
phases BN;
load_class R;
name S1806-35-015;
parent nodeS1806-35-015T7903;
constant_power_C 0;
constant_power_B 0.904377;
constant_power_A 0;
nominal_voltage 120;
};

object load {
phases BN;
load_class R;
name S1806-35-032;
parent nodeS1806-35-032T12192;
constant_power_C 0;
constant_power_B 2.54392;
constant_power_A 0;
nominal_voltage 120;
};

object load {
phases BN;
load_class R;
name S1806-35-031;
parent nodeS1806-35-0311806-0180;
constant_power_C 0;
constant_power_B 4.3624;
constant_power_A 0;
nominal_voltage 120;
};

object load {
phases BN;
load_class R;
name S1806-35-033;
parent nodeS1806-35-0311806-0180;
constant_power_C 0;
constant_power_B 0.266451;
constant_power_A 0;
nominal_voltage 120;
};

object load {
phases BN;
load_class R;
name S1806-35-052;
parent nodeS1806-35-052T28536;
constant_power_C 0;
constant_power_B 1.2214;
constant_power_A 0;
nominal_voltage 120;
};

object load {
phases BN;
load_class R;
name S1806-35-035;
parent nodeS1806-35-0351806-0052;
constant_power_C 0;
constant_power_B 2.57115;
constant_power_A 0;
nominal_voltage 120;
};

object load {
phases BN;
load_class R;
name S1806-35-026;
parent nodeS1806-35-026T15654;
constant_power_C 0;
constant_power_B 1.36337;
constant_power_A 0;
nominal_voltage 120;
};

object load {
phases BN;
load_class R;
name S1806-35-034;
parent nodeS1806-35-026T15654;
constant_power_C 0;
constant_power_B 0.657375;
constant_power_A 0;
nominal_voltage 120;
};

object load {
phases BN;
load_class R;
name S1806-35-003;
parent nodeS1806-35-003T15652;
constant_power_C 0;
constant_power_B 0.355916;
constant_power_A 0;
nominal_voltage 120;
};

object load {
phases BN;
load_class R;
name S1806-35-018;
parent nodeS1806-35-003T15652;
constant_power_C 0;
constant_power_B 2.40195;
constant_power_A 0;
nominal_voltage 120;
};

object load {
phases BN;
load_class R;
name S1806-35-004;
parent nodeS1806-35-004T15655;
constant_power_C 0;
constant_power_B 1.81653;
constant_power_A 0;
nominal_voltage 120;
};

object load {
phases BN;
load_class R;
name S1806-35-039;
parent nodeS1806-35-004T15655;
constant_power_C 0;
constant_power_B 2.46029;
constant_power_A 0;
nominal_voltage 120;
};

object load {
phases BN;
load_class R;
name S1806-35-045;
parent nodeS1806-35-004T15655;
constant_power_C 0;
constant_power_B 1.24279;
constant_power_A 0;
nominal_voltage 120;
};

object load {
phases BN;
load_class R;
name S1806-35-046;
parent nodeS1806-35-046T5158;
constant_power_C 0;
constant_power_B 0;
constant_power_A 0;
nominal_voltage 120;
};

object load {
phases BN;
load_class R;
name S1806-35-044;
parent nodeS1806-35-044T15656;
constant_power_C 0;
constant_power_B 1.76791;
constant_power_A 0;
nominal_voltage 120;
};

object load {
phases BN;
load_class R;
name S1806-26-004;
parent nodeS1806-26-004T15660;
constant_power_C 0;
constant_power_B 0.606808;
constant_power_A 0;
nominal_voltage 120;
};

object load {
phases BN;
load_class R;
name S1806-35-048;
parent nodeS1806-35-048T10509;
constant_power_C 0;
constant_power_B 0.719612;
constant_power_A 0;
nominal_voltage 120;
};

object load {
phases BN;
load_class R;
name S1806-34-007;
parent nodeS1806-34-007T4048;
constant_power_C 0;
constant_power_B 2.28525;
constant_power_A 0;
nominal_voltage 120;
};

object load {
phases BN;
load_class R;
name S1806-33-001;
parent nodeS1806-33-0011806-28-014;
constant_power_C 0;
constant_power_B 0.879093;
constant_power_A 0;
nominal_voltage 120;
};

object load {
phases BN;
load_class R;
name S1806-33-063;
parent nodeS1806-33-0631806-28-009;
constant_power_C 0;
constant_power_B 2.8376;
constant_power_A 0;
nominal_voltage 120;
};

object fuse {
phases BN;
from node842004F21679x1;
name F21679x1;
current_limit 9999.0 A;
to nodeF21679x1842003;
};

object load {
phases BN;
load_class R;
name S1806-28-004;
parent nodeS1806-28-004T18597;
constant_power_C 0;
constant_power_B 2.95624;
constant_power_A 0;
nominal_voltage 120;
};

object load {
phases BN;
load_class R;
name S1806-28-006;
parent nodeS1806-28-004T18597;
constant_power_C 0;
constant_power_B 3.87034;
constant_power_A 0;
nominal_voltage 120;
};

object load {
phases BN;
load_class R;
name S1806-28-008;
parent nodeS1806-28-004T18597;
constant_power_C 0;
constant_power_B 2.83566;
constant_power_A 0;
nominal_voltage 120;
};

object load {
phases BN;
load_class R;
name S1806-28-011;
parent nodeS1806-28-004T18597;
constant_power_C 0;
constant_power_B 0.219773;
constant_power_A 0;
nominal_voltage 120;
};

object load {
phases BN;
load_class R;
name S1806-28-007;
parent nodeS1806-28-0071806-0100;
constant_power_C 0;
constant_power_B 1.20584;
constant_power_A 0;
nominal_voltage 120;
};

object load {
phases BN;
load_class R;
name S1806-33-035;
parent nodeS1806-33-0351806-28-004;
constant_power_C 0;
constant_power_B 0.739061;
constant_power_A 0;
nominal_voltage 120;
};

object fuse {
phases BN;
from node925823F10787x1;
name F10787x1;
current_limit 9999.0 A;
to nodeF10787x1925819;
};

object load {
phases BN;
load_class R;
name S1806-28-015;
parent nodeS1806-28-015T10789;
constant_power_C 0;
constant_power_B 2.02269;
constant_power_A 0;
nominal_voltage 120;
};

object fuse {
phases AN;
from node839562F28659x1;
name F28659x1;
current_limit 9999.0 A;
to nodeF28659x1979024;
};

object load {
phases AN;
load_class R;
name S1806-29-012;
parent nodeS1806-29-012T28660;
constant_power_C 0;
constant_power_B 0;
constant_power_A 3.43274;
nominal_voltage 120;
};

object fuse {
phases AN;
from node976756R28918x1;
name R28918x1;
current_limit 9999.0 A;
to nodeR28918x1976753;
};

object fuse {
phases AN;
from node976760F28814x1;
name F28814x1;
current_limit 9999.0 A;
to nodeF28814x1976774;
};

object load {
phases AN;
load_class R;
name S1806-20-018;
parent nodeS1806-20-0181806-20-027;
constant_power_C 0;
constant_power_B 0;
constant_power_A 3.33355;
nominal_voltage 120;
};

object load {
phases AN;
load_class R;
name S1806-20-066;
parent nodeS1806-20-066T3935;
constant_power_C 0;
constant_power_B 0;
constant_power_A 0.46483;
nominal_voltage 120;
};

object load {
phases AN;
load_class R;
name S1806-20-065;
parent nodeS1806-20-065T4205;
constant_power_C 0;
constant_power_B 0;
constant_power_A 1.9799;
nominal_voltage 120;
};

object load {
phases AN;
load_class R;
name S1806-20-005;
parent nodeS1806-20-005T28813;
constant_power_C 0;
constant_power_B 0;
constant_power_A 1.31281;
nominal_voltage 120;
};

object load {
phases AN;
load_class R;
name S1806-20-012;
parent nodeS1806-20-012T28811;
constant_power_C 0;
constant_power_B 0;
constant_power_A 1.85349;
nominal_voltage 120;
};

object load {
phases AN;
load_class R;
name S1806-20-019;
parent nodeS1806-20-019T28810;
constant_power_C 0;
constant_power_B 0;
constant_power_A 1.72707;
nominal_voltage 120;
};

object load {
phases AN;
load_class R;
name S1806-20-047;
parent nodeS1806-20-047T28809;
constant_power_C 0;
constant_power_B 0;
constant_power_A 0.093355;
nominal_voltage 120;
};

object load {
phases AN;
load_class R;
name S1806-20-013;
parent nodeS1806-20-013T28808;
constant_power_C 0;
constant_power_B 0;
constant_power_A 0.0019449;
nominal_voltage 120;
};

object load {
phases AN;
load_class R;
name S1806-20-015;
parent nodeS1806-20-013T28808;
constant_power_C 0;
constant_power_B 0;
constant_power_A 1.10081;
nominal_voltage 120;
};

object load {
phases AN;
load_class R;
name S1806-20-001;
parent nodeS1806-20-001T28806;
constant_power_C 0;
constant_power_B 0;
constant_power_A 1.8107;
nominal_voltage 120;
};

object fuse {
phases AN;
from node976771F28815x1;
name F28815x1;
current_limit 9999.0 A;
to nodeF28815x1976772;
};

object load {
phases AN;
load_class R;
name S1806-20-010;
parent nodeS1806-20-0101806-20-026;
constant_power_C 0;
constant_power_B 0;
constant_power_A 2.61005;
nominal_voltage 120;
};

object load {
phases AN;
load_class R;
name S1806-20-039;
parent nodeS1806-20-0101806-20-026;
constant_power_C 0;
constant_power_B 0;
constant_power_A 0.106969;
nominal_voltage 120;
};

object load {
phases AN;
load_class R;
name S1806-20-046;
parent nodeS1806-20-0461806-20-025;
constant_power_C 0;
constant_power_B 0;
constant_power_A 0.47261;
nominal_voltage 120;
};

object load {
phases AN;
load_class R;
name S1806-20-034;
parent nodeS1806-20-0341806-20-024;
constant_power_C 0;
constant_power_B 0;
constant_power_A 2.10632;
nominal_voltage 120;
};

object load {
phases AN;
load_class R;
name S1806-20-007;
parent nodeS1806-20-007T28805;
constant_power_C 0;
constant_power_B 0;
constant_power_A 0.542626;
nominal_voltage 120;
};

object load {
phases AN;
load_class R;
name S1806-20-008;
parent nodeS1806-20-007T28805;
constant_power_C 0;
constant_power_B 0;
constant_power_A 2.61005;
nominal_voltage 120;
};

object load {
phases AN;
load_class R;
name S1806-29-011;
parent nodeS1806-29-0111806-20-169;
constant_power_C 0;
constant_power_B 0;
constant_power_A 2.34166;
nominal_voltage 120;
};

object fuse {
phases AN;
from node976775F28919x1;
name F28919x1;
current_limit 9999.0 A;
to nodeF28919x1976763;
};

object load {
phases AN;
load_class R;
name S1806-29-004;
parent nodeS1806-29-004T16939;
constant_power_C 0;
constant_power_B 0;
constant_power_A 1.89044;
nominal_voltage 120;
};

object load {
phases AN;
load_class R;
name S1806-29-013;
parent nodeS1806-29-0131806-0229;
constant_power_C 0;
constant_power_B 0;
constant_power_A 0.56791;
nominal_voltage 120;
};

object load {
phases AN;
load_class R;
name S1806-29-009;
parent nodeS1806-29-009T16942;
constant_power_C 0;
constant_power_B 0;
constant_power_A 3.00292;
nominal_voltage 120;
};

object load {
phases AN;
load_class R;
name S1806-29-014;
parent nodeS1806-29-014T28801;
constant_power_C 0;
constant_power_B 0;
constant_power_A 4.16986;
nominal_voltage 120;
};

object fuse {
phases AN;
from node979034F16133x1;
name F16133x1;
current_limit 9999.0 A;
to nodeF16133x1979033;
};

object load {
phases AN;
load_class R;
name S1806-21-018;
parent nodeS1806-21-018T16137;
constant_power_C 0;
constant_power_B 0;
constant_power_A 2.19579;
nominal_voltage 120;
};

object load {
phases AN;
load_class R;
name S1806-21-014;
parent nodeS1806-21-014T16135;
constant_power_C 0;
constant_power_B 0;
constant_power_A 1.1047;
nominal_voltage 120;
};

object load {
phases AN;
load_class R;
name S1806-21-013;
parent nodeS1806-21-013T12260;
constant_power_C 0;
constant_power_B 0;
constant_power_A 2.26969;
nominal_voltage 120;
};

object load {
phases AN;
load_class R;
name S1806-21-025;
parent nodeS1806-21-013T12260;
constant_power_C 0;
constant_power_B 0;
constant_power_A 0.00388979;
nominal_voltage 120;
};

object fuse {
phases CN;
from node841704F28663x1;
name F28663x1;
current_limit 9999.0 A;
to nodeF28663x1978946;
};

object load {
phases CN;
load_class R;
name S1806-21-021;
parent nodeS1806-21-021T28664;
constant_power_C 3.09044;
constant_power_B 0;
constant_power_A 0;
nominal_voltage 120;
};

object fuse {
phases ABCN;
from node839697F28670x1;
name F28670x1;
current_limit 9999.0 A;
to nodeF28670x1978962;
};

object load {
phases ABCN;
load_class R;
name S1806-21-016;
parent nodeS1806-21-016T28671;
constant_power_C 39.5189;
constant_power_B 39.5189;
constant_power_A 39.5189;
nominal_voltage 120;
};

object fuse {
phases CN;
from node979056F28672x1;
name F28672x1;
current_limit 9999.0 A;
to nodeF28672x1839701;
};

object load {
phases CN;
load_class R;
name S1806-21-012;
parent nodeS1806-21-0121806-0253;
constant_power_C 0.38509;
constant_power_B 0;
constant_power_A 0;
nominal_voltage 120;
};

object load {
phases CN;
load_class R;
name S1806-21-003;
parent nodeS1806-21-0031806-21-004;
constant_power_C 0.387034;
constant_power_B 0;
constant_power_A 0;
nominal_voltage 120;
};

object load {
phases CN;
load_class R;
name S1806-21-010;
parent nodeS1806-21-0101806-21-003;
constant_power_C 2.4389;
constant_power_B 0;
constant_power_A 0;
nominal_voltage 120;
};

object load {
phases CN;
load_class R;
name S1806-21-026;
parent nodeS1806-21-026T28682;
constant_power_C 1.97018;
constant_power_B 0;
constant_power_A 0;
nominal_voltage 120;
};

object fuse {
phases BN;
from node841691F6839x1;
name F6839x1;
current_limit 9999.0 A;
to nodeF6839x1917154;
};

object load {
phases BN;
load_class R;
name S1806-17-006;
parent nodeS1806-17-006T6840;
constant_power_C 0;
constant_power_B 4.10373;
constant_power_A 0;
nominal_voltage 120;
};

object load {
phases BN;
load_class R;
name S1806-17-015;
parent nodeS1806-17-006T6840;
constant_power_C 0;
constant_power_B 2.70341;
constant_power_A 0;
nominal_voltage 120;
};

object fuse {
phases BN;
from node917157F6834x1;
name F6834x1;
current_limit 9999.0 A;
to nodeF6834x1917156;
};

object load {
phases BN;
load_class R;
name S1806-17-008;
parent nodeS1806-17-008T6837;
constant_power_C 0;
constant_power_B 2.40973;
constant_power_A 0;
nominal_voltage 120;
};

object load {
phases BN;
load_class R;
name S1806-20-043;
parent nodeS1806-20-043T6835;
constant_power_C 0;
constant_power_B 6.96078;
constant_power_A 0;
nominal_voltage 120;
};

object load {
phases BN;
load_class R;
name S1806-17-043;
parent nodeS1806-17-043T11973;
constant_power_C 0;
constant_power_B 0.392869;
constant_power_A 0;
nominal_voltage 120;
};

object load {
phases BN;
load_class R;
name S1806-17-044;
parent nodeS1806-17-043T11973;
constant_power_C 0;
constant_power_B 0;
constant_power_A 0;
nominal_voltage 120;
};

object load {
phases BN;
load_class R;
name S1806-20-003;
parent nodeS1806-20-003T6832;
constant_power_C 0;
constant_power_B 1.38088;
constant_power_A 0;
nominal_voltage 120;
};

object fuse {
phases BN;
from node917175F6842x1;
name F6842x1;
current_limit 9999.0 A;
to nodeF6842x1917174;
};

object load {
phases BN;
load_class R;
name S1806-17-032;
parent nodeS1806-17-032T6844;
constant_power_C 0;
constant_power_B 1.71929;
constant_power_A 0;
nominal_voltage 120;
};

object load {
phases BN;
load_class R;
name S1806-17-011;
parent nodeS1806-17-011T6846;
constant_power_C 0;
constant_power_B 0.317018;
constant_power_A 0;
nominal_voltage 120;
};

object load {
phases ABCN;
load_class R;
name S1806-17-023;
parent nodeS1806-17-0231806-0073;
constant_power_C 0.414911;
constant_power_B 0.414911;
constant_power_A 0.414911;
nominal_voltage 120;
};

object load {
phases ABCN;
load_class R;
name S1806-17-047;
parent nodeS1806-17-047T28511;
constant_power_C 4.9342;
constant_power_B 4.9342;
constant_power_A 4.9342;
nominal_voltage 120;
};

object load {
phases ABCN;
load_class R;
name S1806-17-027;
parent nodeS1806-17-027T25810;
constant_power_C 35.004;
constant_power_B 35.004;
constant_power_A 35.004;
nominal_voltage 120;
};

object load {
phases ABCN;
load_class R;
name S1806-17-028;
parent nodeS1806-17-0281806-0192;
constant_power_C 0.250892;
constant_power_B 0.250892;
constant_power_A 0.250892;
nominal_voltage 120;
};

object load {
phases ABCN;
load_class R;
name S1806-17-036;
parent nodeS1806-17-0361806-0260;
constant_power_C 3.08072;
constant_power_B 3.08072;
constant_power_A 3.08072;
nominal_voltage 120;
};

object load {
phases ABCN;
load_class R;
name S1806-17-042;
parent nodeS1806-17-042T4344;
constant_power_C 7.40729;
constant_power_B 7.40729;
constant_power_A 7.40729;
nominal_voltage 120;
};

object load {
phases ABCN;
load_class R;
name S1806-17-029;
parent nodeS1806-17-029T4343;
constant_power_C 41.1325;
constant_power_B 41.1325;
constant_power_A 41.1325;
nominal_voltage 120;
};

object load {
phases ABCN;
load_class R;
name S1806-17-014;
parent nodeS1806-17-014T6850;
constant_power_C 2.7526;
constant_power_B 2.7526;
constant_power_A 2.7526;
nominal_voltage 120;
};

object load {
phases ABCN;
load_class R;
name S1806-17-021;
parent nodeS1806-17-021T6849;
constant_power_C 6.35736;
constant_power_B 6.35736;
constant_power_A 6.35736;
nominal_voltage 120;
};

object load {
phases ABCN;
load_class R;
name S1806-17-001;
parent nodeS1806-17-001T18065;
constant_power_C 1.32253;
constant_power_B 1.32253;
constant_power_A 1.32253;
nominal_voltage 120;
};

object load {
phases ABCN;
load_class R;
name S1806-17-035;
parent nodeS1806-17-035T6830;
constant_power_C 17.3853;
constant_power_B 17.3853;
constant_power_A 17.3853;
nominal_voltage 120;
};

object load {
phases ABCN;
load_class R;
name S1806-20-059;
parent nodeS1806-20-059T6829;
constant_power_C 3.42302;
constant_power_B 3.42302;
constant_power_A 3.42302;
nominal_voltage 120;
};

object load {
phases AN;
load_class R;
name S1806-20-054;
parent nodeS1806-20-054T6827;
constant_power_C 0;
constant_power_B 0;
constant_power_A 47.0416;
nominal_voltage 120;
};

object fuse {
phases AN;
from node917252R6826x1;
name R6826x1;
current_limit 9999.0 A;
to nodeR6826x1917251;
};

object load {
phases AN;
load_class R;
name S1806-20-062;
parent nodeS1806-20-062T6855;
constant_power_C 0;
constant_power_B 0;
constant_power_A 0;
nominal_voltage 120;
};

object load {
phases AN;
load_class R;
name S1806-20-017;
parent nodeS1806-20-017T6854;
constant_power_C 0;
constant_power_B 0;
constant_power_A 0.875203;
nominal_voltage 120;
};

object fuse {
phases AN;
from node841596F6857x1;
name F6857x1;
current_limit 9999.0 A;
to nodeF6857x1917256;
};

object load {
phases AN;
load_class R;
name S1806-17-013;
parent nodeS1806-17-013T6858;
constant_power_C 0;
constant_power_B 0;
constant_power_A 0.262561;
nominal_voltage 120;
};

object load {
phases AN;
load_class R;
name S1806-17-020;
parent nodeS1806-17-013T6858;
constant_power_C 0;
constant_power_B 0;
constant_power_A 0.0641816;
nominal_voltage 120;
};

object load {
phases AN;
load_class R;
name S1806-18-001;
parent nodeS1806-18-0011806-18-001;
constant_power_C 0;
constant_power_B 0;
constant_power_A 0.00972448;
nominal_voltage 120;
};

object fuse {
phases AN;
from node841605F10628x1;
name F10628x1;
current_limit 9999.0 A;
to nodeF10628x1841604;
};

object load {
phases AN;
load_class R;
name S1806-20-072;
parent nodeS1806-20-072T19017;
constant_power_C 0;
constant_power_B 0;
constant_power_A 0.816857;
nominal_voltage 120;
};

object load {
phases AN;
load_class R;
name S1806-20-056;
parent nodeS1806-20-056T19018;
constant_power_C 0;
constant_power_B 0;
constant_power_A 0.210049;
nominal_voltage 120;
};

object load {
phases AN;
load_class R;
name S1806-20-071;
parent nodeS1806-20-071T12325;
constant_power_C 0;
constant_power_B 0;
constant_power_A 4.1368;
nominal_voltage 120;
};

object load {
phases AN;
load_class R;
name S1806-17-041;
parent nodeS1806-17-041T4227;
constant_power_C 0;
constant_power_B 0;
constant_power_A 3.06321;
nominal_voltage 120;
};

object load {
phases AN;
load_class R;
name S1806-17-017;
parent nodeS1806-17-017T10632;
constant_power_C 0;
constant_power_B 0;
constant_power_A 2.96791;
nominal_voltage 120;
};

object load {
phases AN;
load_class R;
name S1806-17-019;
parent nodeS1806-17-017T10632;
constant_power_C 0;
constant_power_B 0;
constant_power_A 1.65705;
nominal_voltage 120;
};

object load {
phases AN;
load_class R;
name S1806-18-007;
parent nodeS1806-18-007T10637;
constant_power_C 0;
constant_power_B 0;
constant_power_A 1.11248;
nominal_voltage 120;
};

object load {
phases AN;
load_class R;
name S1806-18-005;
parent nodeS1806-18-005T10636;
constant_power_C 0;
constant_power_B 0;
constant_power_A 0.741006;
nominal_voltage 120;
};

object load {
phases AN;
load_class R;
name S1806-18-009;
parent nodeS1806-18-005T10636;
constant_power_C 0;
constant_power_B 0;
constant_power_A 1.53841;
nominal_voltage 120;
};

object load {
phases AN;
load_class R;
name S1806-18-004;
parent nodeS1806-18-004T10635;
constant_power_C 0;
constant_power_B 0;
constant_power_A 3.27521;
nominal_voltage 120;
};

object load {
phases AN;
load_class R;
name S1806-18-003;
parent nodeS1806-18-003T10634;
constant_power_C 0;
constant_power_B 0;
constant_power_A 0.0350081;
nominal_voltage 120;
};

object load {
phases AN;
load_class R;
name S1806-18-006;
parent nodeS1806-18-003T10634;
constant_power_C 0;
constant_power_B 0;
constant_power_A 0.525122;
nominal_voltage 120;
};

object load {
phases AN;
load_class R;
name S1806-17-040;
parent nodeS1806-17-040T10633;
constant_power_C 0;
constant_power_B 0;
constant_power_A 0.0583469;
nominal_voltage 120;
};

object load {
phases AN;
load_class R;
name S1806-18-008;
parent nodeS1806-17-040T10633;
constant_power_C 0;
constant_power_B 0;
constant_power_A 0.280065;
nominal_voltage 120;
};

object load {
phases AN;
load_class R;
name S1806-17-025;
parent nodeS1806-17-025T10631;
constant_power_C 0;
constant_power_B 0;
constant_power_A 4.98477;
nominal_voltage 120;
};

object load {
phases AN;
load_class R;
name S1806-17-022;
parent nodeS1806-17-022T10630;
constant_power_C 0;
constant_power_B 0;
constant_power_A 1.99741;
nominal_voltage 120;
};

object load {
phases AN;
load_class R;
name S1806-17-039;
parent nodeS1806-17-039T10629;
constant_power_C 0;
constant_power_B 0;
constant_power_A 0.0427877;
nominal_voltage 120;
};

object load {
phases AN;
load_class R;
name S1806-17-037;
parent nodeS1806-17-0371806-0316;
constant_power_C 0;
constant_power_B 0;
constant_power_A 14.6626;
nominal_voltage 120;
};

object load {
phases AN;
load_class R;
name S1806-17-038;
parent nodeS1806-17-0371806-0316;
constant_power_C 0;
constant_power_B 0;
constant_power_A 0.462885;
nominal_voltage 120;
};

object load {
phases AN;
load_class R;
name S1806-20-067;
parent nodeS1806-20-067T12105;
constant_power_C 0;
constant_power_B 0;
constant_power_A 3.76337;
nominal_voltage 120;
};

object load {
phases BN;
load_class R;
name S1806-20-057;
parent nodeS1806-20-057T6824;
constant_power_C 0;
constant_power_B 6.10698;
constant_power_A 0;
nominal_voltage 120;
};

object load {
phases ABCN;
load_class R;
name S1806-20-004;
parent nodeS1806-20-004T6823;
constant_power_C 14.2097;
constant_power_B 14.2097;
constant_power_A 14.2097;
nominal_voltage 120;
};

object fuse {
phases AN;
from node917262F6883x1;
name F6883x1;
current_limit 9999.0 A;
to nodeF6883x1917261;
};

object load {
phases AN;
load_class R;
name S1806-20-063;
parent nodeS1806-20-063T6821;
constant_power_C 0;
constant_power_B 0;
constant_power_A 0.134198;
nominal_voltage 120;
};

object load {
phases AN;
load_class R;
name S1806-20-022;
parent nodeS1806-20-022T18081;
constant_power_C 0;
constant_power_B 0;
constant_power_A 1.18444;
nominal_voltage 120;
};

object load {
phases AN;
load_class R;
name S1806-20-050;
parent nodeS1806-20-022T18081;
constant_power_C 0;
constant_power_B 0;
constant_power_A 0.696273;
nominal_voltage 120;
};

object load {
phases AN;
load_class R;
name S1806-20-052;
parent nodeS1806-20-022T18081;
constant_power_C 0;
constant_power_B 0;
constant_power_A 1.45089;
nominal_voltage 120;
};

object load {
phases AN;
load_class R;
name S1806-20-053;
parent nodeS1806-20-022T18081;
constant_power_C 0;
constant_power_B 0;
constant_power_A 1.32447;
nominal_voltage 120;
};

object load {
phases AN;
load_class R;
name S1806-20-024;
parent nodeS1806-20-024T18080;
constant_power_C 0;
constant_power_B 0;
constant_power_A 0.999677;
nominal_voltage 120;
};

object load {
phases AN;
load_class R;
name S1806-20-033;
parent nodeS1806-20-024T18080;
constant_power_C 0;
constant_power_B 0;
constant_power_A 0.00972448;
nominal_voltage 120;
};

object load {
phases AN;
load_class R;
name S1806-20-035;
parent nodeS1806-20-024T18080;
constant_power_C 0;
constant_power_B 0;
constant_power_A 0.811022;
nominal_voltage 120;
};

object load {
phases AN;
load_class R;
name S1806-20-058;
parent nodeS1806-20-024T18080;
constant_power_C 0;
constant_power_B 0;
constant_power_A 0.359806;
nominal_voltage 120;
};

object load {
phases AN;
load_class R;
name S1806-20-025;
parent nodeS1806-20-025T12304;
constant_power_C 0;
constant_power_B 0;
constant_power_A 0.999677;
nominal_voltage 120;
};

object load {
phases AN;
load_class R;
name S1806-20-038;
parent nodeS1806-20-025T12304;
constant_power_C 0;
constant_power_B 0;
constant_power_A 3.49109;
nominal_voltage 120;
};

object load {
phases AN;
load_class R;
name S1806-20-040;
parent nodeS1806-20-025T12304;
constant_power_C 0;
constant_power_B 0;
constant_power_A 3.1624;
nominal_voltage 120;
};

object load {
phases AN;
load_class R;
name S1806-20-064;
parent nodeS1806-20-025T12304;
constant_power_C 0;
constant_power_B 0;
constant_power_A 1.68234;
nominal_voltage 120;
};

object load {
phases AN;
load_class R;
name S1806-20-049;
parent nodeS1806-20-0491806-0054;
constant_power_C 0;
constant_power_B 0;
constant_power_A 0.449271;
nominal_voltage 120;
};

object load {
phases AN;
load_class R;
name S1806-20-029;
parent nodeS1806-20-0291806-0051;
constant_power_C 0;
constant_power_B 0;
constant_power_A 2.7248;
nominal_voltage 120;
};

object load {
phases AN;
load_class R;
name S1806-20-037;
parent nodeS1806-20-0291806-0051;
constant_power_C 0;
constant_power_B 0;
constant_power_A 2.94846;
nominal_voltage 120;
};

object load {
phases AN;
load_class R;
name S1806-20-021;
parent nodeS1806-20-0211806-20-123;
constant_power_C 0;
constant_power_B 0;
constant_power_A 1.23112;
nominal_voltage 120;
};

object load {
phases AN;
load_class R;
name S1806-20-051;
parent nodeS1806-20-0211806-20-123;
constant_power_C 0;
constant_power_B 0;
constant_power_A 2.21913;
nominal_voltage 120;
};

object load {
phases AN;
load_class R;
name S1806-20-061;
parent nodeS1806-20-0211806-20-123;
constant_power_C 0;
constant_power_B 0;
constant_power_A 0.451216;
nominal_voltage 120;
};

object load {
phases AN;
load_class R;
name S1806-20-028;
parent nodeS1806-20-0281806-20-120;
constant_power_C 0;
constant_power_B 0;
constant_power_A 2.06743;
nominal_voltage 120;
};

object load {
phases AN;
load_class R;
name S1806-20-030;
parent nodeS1806-20-0281806-20-120;
constant_power_C 0;
constant_power_B 0;
constant_power_A 1.05802;
nominal_voltage 120;
};

object load {
phases AN;
load_class R;
name S1806-20-036;
parent nodeS1806-20-036T12182;
constant_power_C 0;
constant_power_B 0;
constant_power_A 1.34976;
nominal_voltage 120;
};

object load {
phases AN;
load_class R;
name S1806-20-055;
parent nodeS1806-20-036T12182;
constant_power_C 0;
constant_power_B 0;
constant_power_A 2.06354;
nominal_voltage 120;
};

object load {
phases AN;
load_class R;
name S1806-20-068;
parent nodeS1806-20-036T12182;
constant_power_C 0;
constant_power_B 0;
constant_power_A 2.50114;
nominal_voltage 120;
};

object load {
phases AN;
load_class R;
name S1806-20-023;
parent nodeS1806-20-0231806-0047;
constant_power_C 0;
constant_power_B 0;
constant_power_A 1.18444;
nominal_voltage 120;
};

object load {
phases AN;
load_class R;
name S1806-20-031;
parent nodeS1806-20-0231806-0047;
constant_power_C 0;
constant_power_B 0;
constant_power_A 1.15527;
nominal_voltage 120;
};

object load {
phases AN;
load_class R;
name S1806-20-032;
parent nodeS1806-20-0231806-0047;
constant_power_C 0;
constant_power_B 0;
constant_power_A 0.297569;
nominal_voltage 120;
};

object load {
phases AN;
load_class R;
name S1806-20-041;
parent nodeS1806-20-0231806-0047;
constant_power_C 0;
constant_power_B 0;
constant_power_A 0.118639;
nominal_voltage 120;
};

object load {
phases AN;
load_class R;
name S1806-20-060;
parent nodeS1806-20-0231806-0047;
constant_power_C 0;
constant_power_B 0;
constant_power_A 3.26743;
nominal_voltage 120;
};

object load {
phases AN;
load_class R;
name S1806-20-070;
parent nodeS1806-20-070T12287;
constant_power_C 0;
constant_power_B 0;
constant_power_A 5.49239;
nominal_voltage 120;
};

object fuse {
phases ABCN;
from node978975R2908x1;
name R2908x1;
current_limit 9999.0 A;
to nodeR2908x1978974;
};

object fuse {
phases AN;
from node910228F2683x1;
name F2683x1;
current_limit 9999.0 A;
to nodeF2683x1910226;
};

object load {
phases AN;
load_class R;
name S1806-16-011;
parent nodeS1806-16-011T2682;
constant_power_C 0;
constant_power_B 0;
constant_power_A 0.844085;
nominal_voltage 120;
};

object fuse {
phases BN;
from node956848F14154x1;
name F14154x1;
current_limit 9999.0 A;
to nodeF14154x1978998;
};

object load {
phases BN;
load_class R;
name S1806-17-046;
parent nodeS1806-17-046T14155;
constant_power_C 0;
constant_power_B 3.41329;
constant_power_A 0;
nominal_voltage 120;
};

object fuse {
phases BN;
from node841549R18623x1;
name R18623x1;
current_limit 9999.0 A;
to nodeR18623x1841548;
};

object fuse {
phases BN;
from node841554FFRN1-F021x1;
name FFRN1-F021x1;
current_limit 9999.0 A;
to nodeFFRN1-F021x1841553;
};

object load {
phases BN;
load_class R;
name S1806-09-005;
parent nodeS1806-09-0051806-09-011;
constant_power_C 0;
constant_power_B 2.31832;
constant_power_A 0;
nominal_voltage 120;
};

object fuse {
phases BN;
from node949744F15937x1;
name F15937x1;
current_limit 9999.0 A;
to nodeF15937x1949743;
};

object fuse {
phases BN;
from node921367F11823x1;
name F11823x1;
current_limit 9999.0 A;
to nodeF11823x1921364;
};

object load {
phases BN;
load_class R;
name S1806-09-017;
parent nodeS1806-09-017T11825;
constant_power_C 0;
constant_power_B 0.65154;
constant_power_A 0;
nominal_voltage 120;
};

object load {
phases BN;
load_class R;
name S1806-16-012;
parent nodeS1806-16-012T4041;
constant_power_C 0;
constant_power_B 2.46029;
constant_power_A 0;
nominal_voltage 120;
};

object load {
phases BN;
load_class R;
name S1806-09-012;
parent nodeS1806-09-012T7662;
constant_power_C 0;
constant_power_B 1.7154;
constant_power_A 0;
nominal_voltage 120;
};

object load {
phases BN;
load_class R;
name S1806-16-007;
parent nodeS1806-16-007T15939;
constant_power_C 0;
constant_power_B 0.118639;
constant_power_A 0;
nominal_voltage 120;
};

object load {
phases BN;
load_class R;
name S1806-16-003;
parent nodeS1806-16-0031806-16-007;
constant_power_C 0;
constant_power_B 1.55786;
constant_power_A 0;
nominal_voltage 120;
};

object load {
phases BN;
load_class R;
name S1806-09-008;
parent nodeS1806-09-0081806-16-004;
constant_power_C 0;
constant_power_B 0;
constant_power_A 0;
nominal_voltage 120;
};

object fuse {
phases CN;
from node950799F12349x1;
name F12349x1;
current_limit 9999.0 A;
to nodeF12349x1979007;
};

object load {
phases CN;
load_class R;
name S1806-17-045;
parent nodeS1806-17-045T12350;
constant_power_C 0;
constant_power_B 0;
constant_power_A 0;
nominal_voltage 120;
};

object fuse {
phases AN;
from node841546F28122x1;
name F28122x1;
current_limit 9999.0 A;
to nodeF28122x1985271;
};

object load {
phases AN;
load_class R;
name S1806-08-021;
parent nodeS1806-08-021T28123;
constant_power_C 0;
constant_power_B 0;
constant_power_A 0.538736;
nominal_voltage 120;
};

object load {
phases AN;
load_class R;
name S1806-08-026;
parent nodeS1806-08-021T28123;
constant_power_C 0;
constant_power_B 0;
constant_power_A 1.77375;
nominal_voltage 120;
};

object fuse {
phases AN;
from node841543F28124x1;
name F28124x1;
current_limit 9999.0 A;
to nodeF28124x1841542;
};

object load {
phases AN;
load_class R;
name S1806-08-012;
parent nodeS1806-08-0121806-08-023;
constant_power_C 0;
constant_power_B 0;
constant_power_A 3.49109;
nominal_voltage 120;
};

object fuse {
phases CN;
from node839765F28125x1;
name F28125x1;
current_limit 9999.0 A;
to nodeF28125x1979681;
};

object load {
phases CN;
load_class R;
name S1806-08-017;
parent nodeS1806-08-017T28126;
constant_power_C 0.797408;
constant_power_B 0;
constant_power_A 0;
nominal_voltage 120;
};

object fuse {
phases AN;
from node839772F28127x1;
name F28127x1;
current_limit 9999.0 A;
to nodeF28127x1839771;
};

object load {
phases AN;
load_class R;
name S1806-08-009;
parent nodeS1806-08-0091806-08-011;
constant_power_C 0;
constant_power_B 0;
constant_power_A 0.324798;
nominal_voltage 120;
};

object load {
phases AN;
load_class R;
name S1806-08-010;
parent nodeS1806-08-0091806-08-011;
constant_power_C 0;
constant_power_B 0;
constant_power_A 1.20973;
nominal_voltage 120;
};

object load {
phases AN;
load_class R;
name S1806-08-018;
parent nodeS1806-08-0091806-08-011;
constant_power_C 0;
constant_power_B 0;
constant_power_A 3.72642;
nominal_voltage 120;
};

object fuse {
phases ABCN;
from node985283F28128x1;
name F28128x1;
current_limit 9999.0 A;
to nodeF28128x1985282;
};

object load {
phases ABCN;
load_class R;
name S1806-08-020;
parent nodeS1806-08-0201806-0186;
constant_power_C 10.4007;
constant_power_B 10.4007;
constant_power_A 10.4007;
nominal_voltage 120;
};

object fuse {
phases BN;
from node841278F28129x1;
name F28129x1;
current_limit 9999.0 A;
to nodeF28129x1841277;
};

object load {
phases BN;
load_class R;
name S1806-05-057;
parent nodeS1806-05-0571806-05-313;
constant_power_C 0;
constant_power_B 0.0952999;
constant_power_A 0;
nominal_voltage 120;
};

object load {
phases BN;
load_class R;
name S1806-05-123;
parent nodeS1806-05-1231806-05-109;
constant_power_C 0;
constant_power_B 4.53161;
constant_power_A 0;
nominal_voltage 120;
};

object load {
phases BN;
load_class R;
name S1806-05-053;
parent nodeS1806-05-0531806-05-108;
constant_power_C 0;
constant_power_B 0.756565;
constant_power_A 0;
nominal_voltage 120;
};

object load {
phases BN;
load_class R;
name S1806-05-156;
parent nodeS1806-05-0531806-05-108;
constant_power_C 0;
constant_power_B 1.83598;
constant_power_A 0;
nominal_voltage 120;
};

object load {
phases BN;
load_class R;
name S1806-05-118;
parent nodeS1806-05-1181806-05-102;
constant_power_C 0;
constant_power_B 0.779904;
constant_power_A 0;
nominal_voltage 120;
};

object load {
phases BN;
load_class R;
name S1806-05-050;
parent nodeS1806-05-0501806-05-103;
constant_power_C 0;
constant_power_B 0.153647;
constant_power_A 0;
nominal_voltage 120;
};

object load {
phases BN;
load_class R;
name S1806-05-082;
parent nodeS1806-05-0501806-05-103;
constant_power_C 0;
constant_power_B 1.89627;
constant_power_A 0;
nominal_voltage 120;
};

object load {
phases BN;
load_class R;
name S1806-08-002;
parent nodeS1806-05-0501806-05-103;
constant_power_C 0;
constant_power_B 1.53841;
constant_power_A 0;
nominal_voltage 120;
};

object load {
phases BN;
load_class R;
name S1806-05-226;
parent nodeS1806-05-2261806-05-100;
constant_power_C 0;
constant_power_B 0.198379;
constant_power_A 0;
nominal_voltage 120;
};

object load {
phases BN;
load_class R;
name S1806-08-019;
parent nodeS1806-05-2261806-05-100;
constant_power_C 0;
constant_power_B 1.47229;
constant_power_A 0;
nominal_voltage 120;
};

object load {
phases BN;
load_class R;
name S1806-05-137;
parent nodeS1806-05-1371806-05-099;
constant_power_C 0;
constant_power_B 0.379255;
constant_power_A 0;
nominal_voltage 120;
};

object load {
phases BN;
load_class R;
name S1806-08-024;
parent nodeS1806-08-0241806-05-096;
constant_power_C 0;
constant_power_B 0.997732;
constant_power_A 0;
nominal_voltage 120;
};

object load {
phases BN;
load_class R;
name S1806-05-163;
parent nodeS1806-05-1631806-05-095;
constant_power_C 0;
constant_power_B 1.7543;
constant_power_A 0;
nominal_voltage 120;
};

object fuse {
phases CN;
from node841313R2914x1;
name R2914x1;
current_limit 9999.0 A;
to nodeR2914x1841312;
};

object fuse {
phases CN;
from node841319FFRN1-F210x1;
name FFRN1-F210x1;
current_limit 9999.0 A;
to nodeFFRN1-F210x1841318;
};

object load {
phases CN;
load_class R;
name S1806-05-178;
parent nodeS1806-05-1781806-0237;
constant_power_C 0.795463;
constant_power_B 0;
constant_power_A 0;
nominal_voltage 120;
};

object load {
phases CN;
load_class R;
name S1806-05-200;
parent nodeS1806-05-1781806-0237;
constant_power_C 0.976338;
constant_power_B 0;
constant_power_A 0;
nominal_voltage 120;
};

object load {
phases CN;
load_class R;
name S1806-05-201;
parent nodeS1806-05-1781806-0237;
constant_power_C 1.05219;
constant_power_B 0;
constant_power_A 0;
nominal_voltage 120;
};

object load {
phases CN;
load_class R;
name S1806-05-204;
parent nodeS1806-05-1781806-0237;
constant_power_C 0.630147;
constant_power_B 0;
constant_power_A 0;
nominal_voltage 120;
};

object load {
phases CN;
load_class R;
name S1806-05-220;
parent nodeS1806-05-1781806-0237;
constant_power_C 0.847975;
constant_power_B 0;
constant_power_A 0;
nominal_voltage 120;
};

object load {
phases CN;
load_class R;
name S1806-05-194;
parent nodeS1806-05-1941806-0243;
constant_power_C 3.53971;
constant_power_B 0;
constant_power_A 0;
nominal_voltage 120;
};

object load {
phases CN;
load_class R;
name S1806-05-195;
parent nodeS1806-05-195T10072;
constant_power_C 0.565965;
constant_power_B 0;
constant_power_A 0;
nominal_voltage 120;
};

object load {
phases CN;
load_class R;
name S1806-05-225;
parent nodeS1806-05-195T10072;
constant_power_C 0.173096;
constant_power_B 0;
constant_power_A 0;
nominal_voltage 120;
};

object load {
phases CN;
load_class R;
name S1806-05-233;
parent nodeS1806-05-195T10072;
constant_power_C 0.688493;
constant_power_B 0;
constant_power_A 0;
nominal_voltage 120;
};

object load {
phases CN;
load_class R;
name S1806-05-198;
parent nodeS1806-05-1981806-0278;
constant_power_C 1.20778;
constant_power_B 0;
constant_power_A 0;
nominal_voltage 120;
};

object load {
phases CN;
load_class R;
name S1806-05-135;
parent nodeS1806-05-1351806-05-123;
constant_power_C 0.873259;
constant_power_B 0;
constant_power_A 0;
nominal_voltage 120;
};

object load {
phases CN;
load_class R;
name S1806-05-144;
parent nodeS1806-05-1351806-05-123;
constant_power_C 0.925771;
constant_power_B 0;
constant_power_A 0;
nominal_voltage 120;
};

object load {
phases CN;
load_class R;
name S1806-05-149;
parent nodeS1806-05-1351806-05-123;
constant_power_C 1.7718;
constant_power_B 0;
constant_power_A 0;
nominal_voltage 120;
};

object load {
phases CN;
load_class R;
name S1806-05-150;
parent nodeS1806-05-1351806-05-123;
constant_power_C 2.32415;
constant_power_B 0;
constant_power_A 0;
nominal_voltage 120;
};

object fuse {
phases CN;
from node949655F15940x1;
name F15940x1;
current_limit 9999.0 A;
to nodeF15940x1841352;
};

object load {
phases CN;
load_class R;
name S1806-05-219;
parent nodeS1806-05-219T4008;
constant_power_C 0.309239;
constant_power_B 0;
constant_power_A 0;
nominal_voltage 120;
};

object fuse {
phases CN;
from node930209F15626x1;
name F15626x1;
current_limit 9999.0 A;
to nodeF15626x1841400;
};

object load {
phases CN;
load_class R;
name S1806-03-006;
parent nodeS1806-03-006T15633;
constant_power_C 0.408428;
constant_power_B 0;
constant_power_A 0;
nominal_voltage 120;
};

object load {
phases CN;
load_class R;
name S1906-34-014;
parent nodeS1906-34-0141806-0284;
constant_power_C 3.57278;
constant_power_B 0;
constant_power_A 0;
nominal_voltage 120;
};

object load {
phases CN;
load_class R;
name S1906-34-019;
parent nodeS1906-34-019T15378;
constant_power_C 1.83015;
constant_power_B 0;
constant_power_A 0;
nominal_voltage 120;
};

object load {
phases CN;
load_class R;
name S1906-34-015;
parent nodeS1906-34-0151906-0283;
constant_power_C 0.330632;
constant_power_B 0;
constant_power_A 0;
nominal_voltage 120;
};

object load {
phases CN;
load_class R;
name S1906-33-006;
parent nodeS1906-33-006T15629;
constant_power_C 0.0719612;
constant_power_B 0;
constant_power_A 0;
nominal_voltage 120;
};

object load {
phases CN;
load_class R;
name S1906-33-010;
parent nodeS1906-33-010T15631;
constant_power_C 1.06969;
constant_power_B 0;
constant_power_A 0;
nominal_voltage 120;
};

object load {
phases CN;
load_class R;
name S1906-34-021;
parent nodeS1906-34-021T29618;
constant_power_C 0;
constant_power_B 0;
constant_power_A 0;
nominal_voltage 120;
};

object load {
phases CN;
load_class R;
name S1906-34-022;
parent nodeS1906-34-022T28229;
constant_power_C 0.311183;
constant_power_B 0;
constant_power_A 0;
nominal_voltage 120;
};

object load {
phases CN;
load_class R;
name S1906-34-010;
parent nodeS1906-34-0101906-0233;
constant_power_C 0.416208;
constant_power_B 0;
constant_power_A 0;
nominal_voltage 120;
};

object load {
phases CN;
load_class R;
name S1906-34-004;
parent nodeS1906-34-004T4345;
constant_power_C 1.35754;
constant_power_B 0;
constant_power_A 0;
nominal_voltage 120;
};

object load {
phases CN;
load_class R;
name S1906-34-002;
parent nodeS1906-34-002T5434;
constant_power_C 0.198379;
constant_power_B 0;
constant_power_A 0;
nominal_voltage 120;
};

object load {
phases CN;
load_class R;
name S1906-34-012;
parent nodeS1906-34-012T10567;
constant_power_C 2.57115;
constant_power_B 0;
constant_power_A 0;
nominal_voltage 120;
};

object load {
phases CN;
load_class R;
name S1906-34-018;
parent nodeS1906-34-018T4423;
constant_power_C 0.165316;
constant_power_B 0;
constant_power_A 0;
nominal_voltage 120;
};

object load {
phases CN;
load_class R;
name S1906-26-014;
parent nodeS1906-26-0141906-0216;
constant_power_C 1.28169;
constant_power_B 0;
constant_power_A 0;
nominal_voltage 120;
};

object load {
phases CN;
load_class R;
name S1906-26-005;
parent nodeS1906-26-005T12420;
constant_power_C 3.40551;
constant_power_B 0;
constant_power_A 0;
nominal_voltage 120;
};

object load {
phases CN;
load_class R;
name S1906-26-015;
parent nodeS1906-26-0151906-0252;
constant_power_C 0;
constant_power_B 0;
constant_power_A 0;
nominal_voltage 120;
};

object load {
phases CN;
load_class R;
name S1906-34-003;
parent nodeS1906-34-0031906-0107;
constant_power_C 1.79125;
constant_power_B 0;
constant_power_A 0;
nominal_voltage 120;
};

object load {
phases CN;
load_class R;
name S1906-26-009;
parent nodeS1906-26-0091906-0103;
constant_power_C 0.770179;
constant_power_B 0;
constant_power_A 0;
nominal_voltage 120;
};

object load {
phases CN;
load_class R;
name S1906-26-013;
parent nodeS1906-26-0131906-0104;
constant_power_C 0.332577;
constant_power_B 0;
constant_power_A 0;
nominal_voltage 120;
};

object load {
phases CN;
load_class R;
name S1906-26-008;
parent nodeS1906-26-0081906-0105;
constant_power_C 2.48169;
constant_power_B 0;
constant_power_A 0;
nominal_voltage 120;
};

object load {
phases CN;
load_class R;
name S1906-27-002;
parent nodeS1906-26-0081906-0105;
constant_power_C 1.97407;
constant_power_B 0;
constant_power_A 0;
nominal_voltage 120;
};

object load {
phases CN;
load_class R;
name S1906-34-001;
parent nodeS1906-34-0011906-0108;
constant_power_C 2.3611;
constant_power_B 0;
constant_power_A 0;
nominal_voltage 120;
};

object load {
phases CN;
load_class R;
name S1906-27-016;
parent nodeS1906-27-016T9528;
constant_power_C 2.54587;
constant_power_B 0;
constant_power_A 0;
nominal_voltage 120;
};

object load {
phases CN;
load_class R;
name S1906-27-011;
parent nodeS1906-27-011T12352;
constant_power_C 0.0175041;
constant_power_B 0;
constant_power_A 0;
nominal_voltage 120;
};

object load {
phases CN;
load_class R;
name S1906-34-006;
parent nodeS1906-34-006T14070;
constant_power_C 0.262561;
constant_power_B 0;
constant_power_A 0;
nominal_voltage 120;
};

object load {
phases CN;
load_class R;
name S1906-27-012;
parent nodeS1906-27-0121906-0254;
constant_power_C 0.690438;
constant_power_B 0;
constant_power_A 0;
nominal_voltage 120;
};

object load {
phases CN;
load_class R;
name S1906-27-006;
parent nodeS1906-27-006T14091;
constant_power_C 1.32642;
constant_power_B 0;
constant_power_A 0;
nominal_voltage 120;
};

object load {
phases CN;
load_class R;
name S1906-34-017;
parent nodeS1906-27-006T14091;
constant_power_C 4.04538;
constant_power_B 0;
constant_power_A 0;
nominal_voltage 120;
};

object load {
phases CN;
load_class R;
name S1906-34-020;
parent nodeS1906-27-006T14091;
constant_power_C 1.0308;
constant_power_B 0;
constant_power_A 0;
nominal_voltage 120;
};

object load {
phases CN;
load_class R;
name S1906-34-007;
parent nodeS1906-34-0071906-0214;
constant_power_C 0.877148;
constant_power_B 0;
constant_power_A 0;
nominal_voltage 120;
};

object load {
phases CN;
load_class R;
name S1906-27-010;
parent nodeS1906-27-0101906-0098;
constant_power_C 0.439547;
constant_power_B 0;
constant_power_A 0;
nominal_voltage 120;
};

object load {
phases CN;
load_class R;
name S1906-34-013;
parent nodeS1906-27-0101906-0098;
constant_power_C 2.72869;
constant_power_B 0;
constant_power_A 0;
nominal_voltage 120;
};

object load {
phases CN;
load_class R;
name S1906-27-007;
parent nodeS1906-27-0071906-0115;
constant_power_C 0;
constant_power_B 0;
constant_power_A 0;
nominal_voltage 120;
};

object load {
phases CN;
load_class R;
name S1906-27-005;
parent nodeS1906-27-0051906-0116;
constant_power_C 0.575689;
constant_power_B 0;
constant_power_A 0;
nominal_voltage 120;
};

object load {
phases CN;
load_class R;
name S1906-27-008;
parent nodeS1906-27-0051906-0116;
constant_power_C 0.525122;
constant_power_B 0;
constant_power_A 0;
nominal_voltage 120;
};

object load {
phases CN;
load_class R;
name S1906-27-014;
parent nodeS1906-27-0051906-0116;
constant_power_C 0.844085;
constant_power_B 0;
constant_power_A 0;
nominal_voltage 120;
};

object load {
phases CN;
load_class R;
name S1906-34-008;
parent nodeS1906-27-0051906-0116;
constant_power_C 0.799352;
constant_power_B 0;
constant_power_A 0;
nominal_voltage 120;
};

object load {
phases CN;
load_class R;
name S1906-28-023;
parent nodeS1906-28-023T12140;
constant_power_C 0;
constant_power_B 0;
constant_power_A 0;
nominal_voltage 120;
};

object load {
phases CN;
load_class R;
name S1906-28-018;
parent nodeS1906-28-018T12139;
constant_power_C 1.26613;
constant_power_B 0;
constant_power_A 0;
nominal_voltage 120;
};

object load {
phases CN;
load_class R;
name S1906-34-009;
parent nodeS1906-34-0091906-0230;
constant_power_C 0.260616;
constant_power_B 0;
constant_power_A 0;
nominal_voltage 120;
...